/*--------------------------------*- C++ -*----------------------------------*\
| =========                 |                                                 |
| \\      /  F ield         | OpenFOAM: The Open Source CFD Toolbox           |
|  \\    /   O peration     | Version:  v2106                                 |
|   \\  /    A nd           | Website:  www.openfoam.com                      |
|    \\/     M anipulation  |                                                 |
\*---------------------------------------------------------------------------*/
FoamFile
{
    version     2.0;
    format      ascii;
    class       volScalarField;
    object      nut;
}
// * * * * * * * * * * * * * * * * * * * * * * * * * * * * * * * * * * * * * //

dimensions      [0 2 -1 0 0 0 0];

internalField   uniform 0;

boundaryField
{
	geometry_surface
	{
		type            nutkWallFunction;
        value           uniform 0;
	}

	X_left
	{
		type            fixedValue;
        value           uniform 0;
	}

	X_right
	{
		type            zeroGradient;
	}

	Y_left
	{
        type            slip;
	}

	Y_right
	{
        type            slip;  
	}

	Z_left
	{
		type            slip;
	}

	Z_right
	{
		type            slip;
	}
}


// ************************************************************************* //
