/*--------------------------------*- C++ -*----------------------------------*\
| =========                 |                                                 |
| \\      /  F ield         | OpenFOAM: The Open Source CFD Toolbox           |
|  \\    /   O peration     | Version:  v2106                                 |
|   \\  /    A nd           | Website:  www.openfoam.com                      |
|    \\/     M anipulation  |                                                 |
\*---------------------------------------------------------------------------*/
FoamFile
{
    version     2.0;
    format      ascii;
    class       volScalarField;
    object      epsilon;
}
// * * * * * * * * * * * * * * * * * * * * * * * * * * * * * * * * * * * * * //

dimensions      [0 2 -3 0 0 0 0];

internalField   uniform 0.001;

boundaryField
{
	geometry_surface
	{
		type            epsilonWallFunction;
        Cmu             0.09;
        kappa           0.4;
        E               9.8;
        value           $internalField;
	}

	X_left
	{
    type            atmBoundaryLayerInletEpsilon;
    flowDir         (1 0 1);
    zDir            (0 1 0);
    Uref            0.49;
    Zref            1;
    z0              uniform 0.05;
    d               uniform 0.0;

    kappa           0.41;
    Cmu             0.09;
    initABL         true;
    phi             phi;
    C1              0.0;
    C2              1.0;

    value           uniform 0;   
	}

	X_right
	{
		type            inletOutlet;
        inletValue      $internalField;
        value           $internalField;
	}

	Z_left
	{
    type            atmBoundaryLayerInletEpsilon;
    flowDir         (1 0 1);
    zDir            (0 1 0);
    Uref            0.49;
    Zref            1;
    z0              uniform 0.05;
    d               uniform 0.0;

    kappa           0.41;
    Cmu             0.09;
    initABL         true;
    phi             phi;
    C1              0.0;
    C2              1.0;

    value           uniform 0;   
	}

	Z_right
	{
		type            inletOutlet;
        inletValue      $internalField;
        value           $internalField;
	}

	Y_left
	{
		type            zeroGradient;
	}

	Y_right
	{
		type            slip;
	}
}


// ************************************************************************* //
