/*--------------------------------*- C++ -*----------------------------------*\ 
| =========                 |                                                 | 
| \\      /  F ield         | OpenFOAM: The Open Source CFD Toolbox           | 
|  \\    /   O peration     | Version:  v2012                                 | 
|   \\  /    A nd           | Website:  www.openfoam.com                      | 
|    \\/     M anipulation  |                                                 | 
\*---------------------------------------------------------------------------*/ 
FoamFile 
{ 
    version     2.0; 
    format      ascii; 
    class       volVectorField; 
    object      U; 
} 
// * * * * * * * * * * * * * * * * * * * * * * * * * * * * * * * * * * * * * //  

dimensions      [0 1 -1 0 0 0 0];

internalField   uniform (0.34648 0.34648 0);

boundaryField
{
	geometry_surface
	{
        type            uniformFixedValue;
        value           uniform (0 0 0);
        uniformValue    constant (0 0 0);
	}

	X_left
	{
    type            atmBoundaryLayerInletVelocity;
    flowDir         (1 0 1);
    zDir            (0 1 0);
    Uref            0.49;
    Zref            1;
    z0              uniform 0.05;
    d               uniform 0.0;

    kappa           0.41;
    Cmu             0.09;
    initABL         true;
    phi             phi;
    C1              0.0;
    C2              1.0;

    value           uniform 0;    
	}

	X_right
	{
        type            inletOutlet;
        inletValue      uniform (0 0 0);
        value           $internalField;
	}

	Z_left
	{
    type            atmBoundaryLayerInletVelocity;
    flowDir         (1 0 1);
    zDir            (0 1 0);
    Uref            0.49;
    Zref            1;
    z0              uniform 0.05;
    d               uniform 0.0;

    kappa           0.41;
    Cmu             0.09;
    initABL         true;
    phi             phi;
    C1              0.0;
    C2              1.0;

    value           uniform 0;    
	}

	Z_right
	{
        type            inletOutlet;
        inletValue      uniform (0 0 0);
        value           $internalField;
	}

	Y_left
	{
		type            uniformFixedValue;
        value           uniform (0 0 0);
        uniformValue    constant (0 0 0);
	}

	Y_right
	{
		type            slip;
	}

}


// ************************************************************************* //
